Version 4
SHEET 1 1080 680
WIRE 112 176 96 176
WIRE 208 176 192 176
WIRE 320 176 208 176
WIRE 464 176 448 176
WIRE 560 176 544 176
WIRE 672 176 560 176
WIRE 800 176 784 176
WIRE 896 176 880 176
WIRE 1008 176 896 176
WIRE 1008 192 1008 176
WIRE 320 208 320 176
WIRE 672 208 672 176
WIRE 96 336 96 176
WIRE 208 336 208 176
WIRE 448 336 448 176
WIRE 560 336 560 176
WIRE 784 336 784 176
WIRE 896 336 896 176
WIRE 320 368 320 288
WIRE 320 368 224 368
WIRE 672 368 672 288
WIRE 672 368 576 368
WIRE 1008 368 1008 272
WIRE 1008 368 912 368
WIRE 320 384 320 368
WIRE 672 416 672 368
WIRE 1008 416 1008 368
WIRE 320 496 320 464
WIRE 96 592 96 416
WIRE 208 592 208 400
WIRE 208 592 96 592
WIRE 320 592 320 576
WIRE 320 592 208 592
WIRE 448 592 448 416
WIRE 560 592 560 400
WIRE 560 592 448 592
WIRE 672 592 672 576
WIRE 672 592 560 592
WIRE 784 592 784 416
WIRE 896 592 896 400
WIRE 896 592 784 592
WIRE 1008 592 1008 576
WIRE 1008 592 896 592
WIRE 96 640 96 592
WIRE 448 640 448 592
WIRE 784 640 784 592
FLAG 96 640 0
FLAG 448 640 0
FLAG 784 640 0
SYMBOL voltage 96 320 R0
SYMATTR InstName V1
SYMATTR Value 9
SYMBOL Res 304 192 R0
SYMATTR InstName R1
SYMATTR Value 4.7k
SYMBOL Res 304 368 R0
SYMATTR InstName R2
SYMATTR Value 330
SYMBOL Res 208 160 R90
WINDOW 0 0 56 VBottom 2
WINDOW 3 32 56 VTop 2
SYMATTR InstName R4
SYMATTR Value 470
SYMBOL AutoGenerated/TL431 208 368 R0
SYMATTR InstName U1
SYMBOL voltage 448 320 R0
SYMATTR InstName V2
SYMATTR Value 9
SYMBOL Res 656 192 R0
SYMATTR InstName R3
SYMATTR Value 7.5k
SYMBOL Res 656 400 R0
SYMATTR InstName R5
SYMATTR Value 470
SYMBOL Res 560 160 R90
WINDOW 0 0 56 VBottom 2
WINDOW 3 32 56 VTop 2
SYMATTR InstName R6
SYMATTR Value 470
SYMBOL AutoGenerated/TL431 560 368 R0
SYMATTR InstName U2
SYMBOL voltage 784 320 R0
SYMATTR InstName V3
SYMATTR Value 9
SYMBOL Res 992 176 R0
SYMATTR InstName R7
SYMATTR Value 2.2k
SYMBOL Res 992 400 R0
SYMATTR InstName R8
SYMATTR Value 150
SYMBOL Res 896 160 R90
WINDOW 0 0 56 VBottom 2
WINDOW 3 32 56 VTop 2
SYMATTR InstName R9
SYMATTR Value 470
SYMBOL AutoGenerated/TL431 896 368 R0
SYMATTR InstName U3
SYMBOL Res 304 480 R0
SYMATTR InstName R10
SYMATTR Value 7.5k
SYMBOL Res 656 480 R0
SYMATTR InstName R11
SYMATTR Value 5.6k
SYMBOL Res 992 480 R0
SYMATTR InstName R13
SYMATTR Value 1k
TEXT 16 96 Left 2 !.tran 1u 10m
TEXT 16 72 Left 2 !.lib tl431.lib
TEXT 232 120 Left 2 ;4V (7/5)
TEXT 552 120 Left 2 ;5.6V (31/25)
TEXT 840 104 Left 2 ;7.3V (48/25)
